
  EPA STORM WATER MANAGEMENT MODEL - VERSION 5.1 (Build 5.1.015)
  --------------------------------------------------------------

  WARNING 02: maximum depth increased for Node J65
  WARNING 02: maximum depth increased for Node J68
  
  *************
  Element Count
  *************
  Number of rain gages ...... 2
  Number of subcatchments ... 5523
  Number of nodes ........... 291
  Number of links ........... 214
  Number of pollutants ...... 0
  Number of land uses ....... 0
  
  
  ****************
  Raingage Summary
  ****************
                                                      Data       Recording
  Name                 Data Source                    Type       Interval 
  ------------------------------------------------------------------------
  huff_2yr             Huff_(0-10_sq._mi.)_First_quartile_73.6mm VOLUME       5 min.
  Incheon              Huff                           INTENSITY   60 min.
  
  
  ********************
  Subcatchment Summary
  ********************
  Name                       Area     Width   %Imperv    %Slope Rain Gage            Outlet              
  -----------------------------------------------------------------------------------------------------------
  S00137TTTT                 0.01      7.95     15.00    0.8030 huff_2yr             S00238TTTT          
  S00138TTTT                 0.05     23.06     15.00    3.3380 huff_2yr             S00239TTTT          
  S00139TTTT                 0.03     18.51     15.00    3.4820 huff_2yr             S00140TTTT          
  S00140TTTT                 0.01     11.53     15.00    3.4820 huff_2yr             S00141TTTT          
  S00141TTTT                 0.00      1.36     15.00    3.3580 huff_2yr             S00241TTTT          
  S00237TTTT                 0.04     20.16     15.00    1.7070 huff_2yr             S00338TTTT          
  S00238TTTT                 0.09     30.00     15.00    3.4820 huff_2yr             S00339TTTT          
  S00239TTTT                 0.09     30.00     15.00    3.4820 huff_2yr             S00240TTTT          
  S00240TTTT                 0.09     30.00     15.00    2.2420 huff_2yr             S00241TTTT          
  S00241TTTT                 0.08     28.66     15.00    2.3470 huff_2yr             S00242TTTT          
  S00242TTTT                 0.06     24.76     15.00    2.2360 huff_2yr             S00243TTTT          
  S00243TTTT                 0.04     20.08     15.00    2.3140 huff_2yr             S00244TTTT          
  S00244TTTT                 0.02     13.91     15.00    2.0390 huff_2yr             OF1                 
  S00245TTTT                 0.00      4.32     15.00    1.0020 huff_2yr             OF1                 
  S00337TTTT                 0.02     15.73     15.00    2.4140 huff_2yr             S00438TTTT          
  S00338TTTT                 0.09     30.00     15.00    2.7790 huff_2yr             S00439TTTT          
  S00339TTTT                 0.09     30.00     15.00    2.0980 huff_2yr             S00340TTTT          
  S00340TTTT                 0.09     30.00     15.00    2.1560 huff_2yr             SD00341             
  S00341TTTT                 0.07     26.96     15.00    2.3010 huff_2yr             SD00342             
  S00342TTFT                 0.04     20.15     15.00    2.0560 huff_2yr             S00243TTTT          
  S00343TTFT                 0.06     24.38     15.00    2.0470 huff_2yr             S00244TTTT          
  S00344TTFT                 0.08     27.98     15.00    1.9470 huff_2yr             S00245TTTT          
  S00345TTFT                 0.09     29.39     15.00    1.7790 huff_2yr             S00245TTTT          
  S00346TTTT                 0.07     25.96     15.00    1.5550 huff_2yr             S00347TTTT          
  S00347TTTT                 0.05     21.54     15.00    0.4280 huff_2yr             S00348TTTT          
  S00348TTTT                 0.03     15.94     15.00    0.3000 huff_2yr             OF2                 
  S00349TTTT                 0.01      7.28     15.00    0.3000 huff_2yr             OF2                 
  S00437TTTT                 0.02     15.60     15.00    2.4090 huff_2yr             S00438TTTT          
  S00438TTTT                 0.09     30.00     15.00    2.1430 huff_2yr             S00439TTTT          
  S00439TTTT                 0.09     30.00     15.00    1.9370 huff_2yr             S00440TTTT          
  S00440TTTT                 0.09     30.00     15.00    1.9110 huff_2yr             SD00441             
  S00441TTTF                 0.05     21.56     15.00    2.0010 huff_2yr             SD00342             
  S00442FFTT                 0.06     23.70     85.00    1.6930 huff_2yr             SD00343             
  S00443FTTT                 0.06     23.91     85.00    1.5690 huff_2yr             SD00344             
  S00444FTTT                 0.04     19.30     85.00    1.5550 huff_2yr             SD00345             
  S00445FTTT                 0.02     15.69     85.00    1.4350 huff_2yr             S00346TTTT          
  S00446TTFT                 0.03     16.54     15.00    1.0830 huff_2yr             S00347TTTT          
  S00447TTFT                 0.04     21.17     15.00    0.9530 huff_2yr             S00347TTTT          
  S00448TTFT                 0.06     25.23     15.00    0.9400 huff_2yr             S00348TTTT          
  S00449TTFT                 0.08     28.55     15.00    0.8480 huff_2yr             S00349TTTT          
  S00450TTTT                 0.07     27.10     15.00    0.7150 huff_2yr             S00451TTTT          
  S00451TTTT                 0.05     22.90     15.00    0.5140 huff_2yr             S00452TTTT          
  S00452TTTT                 0.03     17.74     15.00    0.3000 huff_2yr             S00453TTTT          
  S00453TTTT                 0.01     10.23     15.00    0.3000 huff_2yr             OF3                 
  S00537TTTT                 0.02     13.24      0.00    2.0560 huff_2yr             S00538TTFT          
  S00538TTFT                 0.09     30.00     15.00    1.7650 huff_2yr             S00539TTFT          
  S00539TTFT                 0.09     30.00     15.00    1.7430 huff_2yr             S00540TTFT          
  S00540TTFT                 0.09     30.00     15.00    1.7040 huff_2yr             SD00441             
  S00541TTTF                 0.03     16.12     15.00    1.4860 huff_2yr             SD00442             
  S00542TFTT                 0.09     29.18     85.00    1.4130 huff_2yr             SD00443             
  S00543TTTT                 0.09     30.00     85.00    1.4350 huff_2yr             SD00444             
  S00544TTTT                 0.09     30.00     85.00    1.4350 huff_2yr             SD00445             
  S00545TTTT                 0.09     30.00     85.00    1.1930 huff_2yr             SD00446             
  S00546FTTT                 0.09     29.33     85.00    0.8490 huff_2yr             SD00547             
  S00547FTTF                 0.03     18.14     85.00    0.9660 huff_2yr             SD00448             
  S00548FTTT                 0.06     23.65     85.00    0.9370 huff_2yr             SD00448             
  S00549FTTT                 0.04     19.46     85.00    0.8370 huff_2yr             SD00449             
  S00550FTTT                 0.03     17.58     85.00    0.8370 huff_2yr             S00450TTTT          
  S00551TFFT                 0.03     18.22     15.00    0.7510 huff_2yr             S00451TTTT          
  S00552TTFT                 0.05     22.14     15.00    0.7590 huff_2yr             S00452TTTT          
  S00553TTFT                 0.07     26.05     15.00    0.7730 huff_2yr             S00453TTTT          
  S00554TTFT                 0.08     27.42     15.00    0.7680 huff_2yr             S00555TTTT          
  S00555TTTT                 0.06     24.19     15.00    0.7640 huff_2yr             S00556TTTT          
  S00556TTTT                 0.04     19.37     15.00    0.7680 huff_2yr             S00557TTTT          
  S00557TTTT                 0.02     12.86     15.00    0.7650 huff_2yr             OF4                 
  S00558TTTT                 0.00      2.95     15.00    0.7670 huff_2yr             OF4                 
  S00637TTTF                 0.04     18.83      0.00    1.9700 huff_2yr             SN00638             
  S00641FFTT                 0.02     14.53     85.00    1.4350 huff_2yr             S00642TTTT          
  S00642TTTT                 0.09     30.00     85.00    1.4350 huff_2yr             S00643TTTT          
  S00643TTTT                 0.09     30.00     85.00    1.4350 huff_2yr             S00644TTTT          
  S00644TTTT                 0.09     30.00     85.00    1.4350 huff_2yr             S00645TTTT          
  S00645TTTT                 0.09     30.00     85.00    0.9320 huff_2yr             S00646TTTT          
  S00646TTTT                 0.09     30.00     85.00    0.9330 huff_2yr             SD00547             
  S00647FFTT                 0.04     20.40     85.00    0.8730 huff_2yr             SD00548             
  S00648TTTT                 0.09     30.00     85.00    0.7340 huff_2yr             SD00548             
  S00649TTTT                 0.09     30.00    100.00    0.8370 huff_2yr             SD00549             
  S00650TTTT                 0.09     30.00     85.00    0.7990 huff_2yr             SD00550             
  S00651TTTF                 0.04     20.31     85.00    0.7490 huff_2yr             SD00551             
  S00652FTTT                 0.07     26.10     85.00    0.7600 huff_2yr             SD00552             
  S00653FTTT                 0.05     22.59     85.00    0.7700 huff_2yr             SD00553             
  S00654FTTT                 0.03     17.93     85.00    0.7680 huff_2yr             SD00554             
  S00655FTTF                 0.03     16.37     85.00    0.7690 huff_2yr             S00555TTTT          
  S00656TFFT                 0.04     19.67     15.00    0.7680 huff_2yr             S00556TTTT          
  S00657TTTT                 0.09     30.00     15.00    0.7650 huff_2yr             S00557TTTT          
  S00658TTTT                 0.08     29.10     15.00    0.7670 huff_2yr             S00558TTTT          
  S00659TTTT                 0.06     25.41     15.00    0.7230 huff_2yr             S00660TTTF          
  S00660TTTF                 0.02     13.67     15.00    0.7230 huff_2yr             J192                
  S00661TTTT                 0.00      2.13     15.00    0.6970 huff_2yr             J193                
  S00662TTTT                 0.00      0.32     15.00    0.4910 huff_2yr             J193                
  S00737TTTF                 0.04     18.82      0.00    1.7810 huff_2yr             SN00738             
  S00741TFTT                 0.03     18.45     85.00    1.4350 huff_2yr             S00742TTTT          
  S00742TTTT                 0.09     30.00     85.00    1.4350 huff_2yr             S00743TTTT          
  S00743TTTT                 0.09     30.00     85.00    1.4350 huff_2yr             S00744TTTT          
  S00744TTTT                 0.09     30.00     85.00    1.1930 huff_2yr             S00745TTTT          
  S00745TTTT                 0.09     30.00     85.00    0.8690 huff_2yr             SD00746             
  S00746TTTF                 0.08     29.05     85.00    0.8030 huff_2yr             SD00647             
  S00747TFTT                 0.05     21.93     85.00    0.8600 huff_2yr             SD00647             
  S00748TTTT                 0.09     30.00     85.00    0.8370 huff_2yr             S00648TTTT          
  S00749TTTT                 0.09     30.00    100.00    0.8370 huff_2yr             S00650TTTT          
  S00750TTTT                 0.09     30.00     85.00    0.7390 huff_2yr             S00650TTTT          
  S00751TTTF                 0.04     19.33     85.00    0.7480 huff_2yr             SD00651             
  S00752TTTT                 0.09     30.00     85.00    0.7500 huff_2yr             SD00652             
  S00753TTTT                 0.09     30.00     85.00    0.7690 huff_2yr             SD00653             
  S00754TTTT                 0.09     30.00     85.00    0.7680 huff_2yr             SD00654             
  S00755TTTT                 0.09     29.95     85.00    0.7690 huff_2yr             SD00655             
  S00756TFTT                 0.03     16.98     85.00    0.7680 huff_2yr             SD00656             
  S00757TTTT                 0.09     30.00     85.00    0.7650 huff_2yr             S00657TTTT          
  S00758TTTT                 0.09     30.00     85.00    0.7640 huff_2yr             S00658TTTT          
  S00759TTTT                 0.08     28.96     15.00    0.7230 huff_2yr             S00659TTTT          
  S00760TTFF                 0.01      7.24     15.00    0.7230 huff_2yr             SD00661             
  S00761TFTT                 0.04     19.24     15.00    0.7230 huff_2yr             SD00661             
  S00762TTTT                 0.08     28.21     15.00    0.7230 huff_2yr             S00662TTTT          
  S00763TTTT                 0.06     23.95     15.00    0.6970 huff_2yr             S00764TTTT          
  S00764TTTT                 0.04     18.76     15.00    0.5350 huff_2yr             S00765TTTT          
  S00765TTTT                 0.01     11.40     15.00    0.3000 huff_2yr             OF6                 
  S00766TTTT                 0.00      0.90     15.00    0.3000 huff_2yr             OF6                 
  S00837TTTF                 0.03     17.92      0.00    1.4350 huff_2yr             SN00838             
  S00841FFTT                 0.03     16.89     85.00    1.4350 huff_2yr             SD00842             
  S00842FTTF                 0.05     21.22     85.00    1.4350 huff_2yr             SD00843             
  S00843TFFT                 0.05     21.50     85.00    1.2980 huff_2yr             SD00844             
  S00844TTFT                 0.06     23.64     85.00    0.8730 huff_2yr             SD00845             
  S00845TTFT                 0.08     27.45     85.00    0.9410 huff_2yr             SD00746             
  S00846TTTF                 0.07     25.67     85.00    0.9570 huff_2yr             SD00747             
  S00847TFFT                 0.07     25.86     85.00    0.7340 huff_2yr             S00748TTTT          
  S00848TTTT                 0.09     30.00     85.00    0.8370 huff_2yr             S00749TTTT          
  S00849TTTT                 0.09     30.00     85.00    0.7830 huff_2yr             S00749TTTT          
  S00850TTTT                 0.09     29.66     85.00    0.7330 huff_2yr             S00750TTTT          
  S00851TFTT                 0.04     19.92     85.00    0.7270 huff_2yr             S00752TTTT          
  S00852TTTT                 0.09     30.00     85.00    0.7700 huff_2yr             S00752TTTT          
  S00853TTTT                 0.09     30.00     85.00    0.7690 huff_2yr             S00753TTTT          
  S00854TTTT                 0.09     30.00     85.00    0.7680 huff_2yr             S00754TTTT          
  S00855TTTF                 0.08     27.74     85.00    0.7690 huff_2yr             SD00755             
  S00856TFTT                 0.04     20.32     85.00    0.7680 huff_2yr             SD00756             
  S00857TTTT                 0.09     30.00     85.00    0.7630 huff_2yr             S00757TTTT          
  S00858TTTT                 0.09     30.00     85.00    0.7690 huff_2yr             S00758TTTT          
  S00859TTTF                 0.05     21.37     85.00    0.7230 huff_2yr             SD00759             
  S00860FFFT                 0.00      1.94     15.00    0.7230 huff_2yr             SD00761             
  S00861TTTT                 0.08     27.62     15.00    0.7230 huff_2yr             S00762TTTT          
  S00862TTTT                 0.09     30.00     15.00    0.7230 huff_2yr             S00763TTTT          
  S00863TTTT                 0.09     30.00     15.00    0.7230 huff_2yr             S00764TTTT          
  S00864TTTT                 0.09     30.00     15.00    0.7230 huff_2yr             S00764TTTT          
  S00865TTTT                 0.09     30.00     15.00    0.6970 huff_2yr             S00765TTTT          
  S00866TTTT                 0.08     28.41     15.00    0.5790 huff_2yr             S00766TTTT          
  S00867TTTT                 0.05     23.12     15.00    0.3000 huff_2yr             OF7                 
  S00868TTTT                 0.00      1.81     15.00    0.3000 huff_2yr             OF7                 
  S00937TTTF                 0.02     15.74      0.00    1.4350 huff_2yr             SN00938             
  S00941TFTT                 0.07     26.91     85.00    1.4350 huff_2yr             S00942TTTT          
  S00942TTTT                 0.09     30.00     85.00    1.4350 huff_2yr             S00943TTTT          
  S00943TTTT                 0.09     30.00     85.00    1.0960 huff_2yr             SD00944             
  S00944FTTT                 0.08     28.56     85.00    0.8260 huff_2yr             SD00945             
  S00945FTTT                 0.06     25.17     85.00    0.7760 huff_2yr             SD00845             
  S00946FTTT                 0.05     21.55     85.00    0.8820 huff_2yr             SD00846             
  S00947FTTF                 0.04     20.75     85.00    0.8370 huff_2yr             S00848TTTT          
  S00948TFFT                 0.04     21.19     85.00    0.8370 huff_2yr             S00849TTTT          
  S00949TTFT                 0.06     23.46     85.00    0.7510 huff_2yr             S00849TTTT          
  S00950TTFF                 0.06     24.09     85.00    0.7320 huff_2yr             SD00851             
  S00951TFTT                 0.06     23.63     85.00    0.7490 huff_2yr             SD00851             
  S00952TTTT                 0.09     30.00     85.00    0.7660 huff_2yr             S00852TTTT          
  S00953TTTT                 0.09     30.00     85.00    0.7690 huff_2yr             S00853TTTT          
  S00954TTTT                 0.09     30.00     85.00    0.7680 huff_2yr             S00854TTTT          
  S00955TTTF                 0.06     24.03     85.00    0.7690 huff_2yr             SD00855             
  S00956TFTT                 0.06     24.52     85.00    0.7680 huff_2yr             SD00856             
  S00957TTTT                 0.09     30.00     85.00    0.7650 huff_2yr             S00857TTTT          
  S00958TTTT                 0.09     29.33     85.00    0.7630 huff_2yr             S00858TTTT          
  S00959TTFF                 0.01      8.31     85.00    0.7230 huff_2yr             SD00859             
  S00960FFTT                 0.03     17.18     85.00    0.7230 huff_2yr             SD00861             
  S00961FTTT                 0.04     20.68     85.00    0.7230 huff_2yr             S00862TTTT          
  S00962TFFT                 0.04     20.43     85.00    0.7230 huff_2yr             S00863TTTT          
  S00963TTFT                 0.05     21.57     15.00    0.7230 huff_2yr             S00864TTTT          
  S00964TTFT                 0.07     25.69     15.00    0.7230 huff_2yr             S00865TTTT          
  S00965TTFT                 0.09     29.20     15.00    0.7230 huff_2yr             S00866TTTT          
  S00966TTTT                 0.09     30.00     15.00    0.7230 huff_2yr             S00866TTTT          
  S00967TTTT                 0.09     30.00     15.00    0.6970 huff_2yr             S00867TTTT          
  S00968TTTT                 0.03     17.75     15.00    0.6230 huff_2yr             S00868TTTT          
  S01037TTTF                 0.02     12.26      0.00    1.4350 huff_2yr             SN01038             
  S01041TFFT                 0.05     21.56     85.00    1.4350 huff_2yr             SD01042             
  S01042TTFT                 0.07     25.75     85.00    1.1930 huff_2yr             SD01043             
  S01043TTFT                 0.08     29.04     85.00    0.9080 huff_2yr             S01044TTTT          
  S01044TTTT                 0.09     30.00     85.00    0.8960 huff_2yr             SD00945             
  S01045TTTT                 0.09     30.00     85.00    0.9170 huff_2yr             SD00945             
  S01046TTTT                 0.09     30.00     85.00    0.7340 huff_2yr             SD00947             
  S01047TTTT                 0.09     30.00     85.00    0.8370 huff_2yr             SD00948             
  S01048TTTT                 0.09     30.00     85.00    0.7980 huff_2yr             SD00948             
  S01049FTTT                 0.08     28.35     85.00    0.7540 huff_2yr             SD00950             
  S01050FTTT                 0.06     24.93     85.00    0.7350 huff_2yr             SD00951             
  S01051FTTT                 0.05     21.47     85.00    0.7330 huff_2yr             SD00951             
  S01052FTTF                 0.05     21.32     85.00    0.7680 huff_2yr             S00952TTTT          
  S01053TFFT                 0.05     21.87     85.00    0.7690 huff_2yr             S00953TTTT          
  S01054TTFT                 0.06     24.72     85.00    0.7680 huff_2yr             S00954TTTT          
  S01055TTFF                 0.03     18.29     85.00    0.7680 huff_2yr             SD00955             
  S01056TFTT                 0.08     28.09     85.00    0.7680 huff_2yr             SD00956             
  S01057TTTT                 0.09     30.00     85.00    0.7650 huff_2yr             S00957TTTT          
  S01058TTTF                 0.05     22.41     85.00    0.7230 huff_2yr             SD00958             
  S01059FFTT                 0.00      4.48     85.00    0.7230 huff_2yr             SD00960             
  S01060TTTT                 0.08     28.40     85.00    0.7230 huff_2yr             SD00961             
  S01061TTTT                 0.09     30.00     85.00    0.7230 huff_2yr             SD00962             
  S01062TTTT                 0.09     30.00     85.00    0.7230 huff_2yr             SD00963             
  S01063FTTF                 0.04     20.81     85.00    0.7230 huff_2yr             SD00964             
  S01064FTTT                 0.06     24.76     85.00    0.7230 huff_2yr             SD00965             
  S01065FTTT                 0.05     21.46     85.00    0.7230 huff_2yr             S00966TTTT          
  S01066FTTF                 0.05     21.30     85.00    0.7230 huff_2yr             S00967TTTT          
  S01067TFTT                 0.06     24.22     15.00    0.7230 huff_2yr             S00968TTTT          
  S01068TTTT                 0.02     12.56     15.00    0.7260 huff_2yr             S00968TTTT          
  S01137TTTT                 0.00      3.16      0.00    1.4350 huff_2yr             S01138FTTT          
  S01138FTTT                 0.08     28.81     85.00    1.4350 huff_2yr             S01139FTTT          
  S01139FTTT                 0.09     30.00     85.00    1.4350 huff_2yr             SD01140             
  S01140FFTT                 0.03     17.34     85.00    1.4350 huff_2yr             SD01141             
  S01141FTTT                 0.07     26.46     85.00    1.4350 huff_2yr             SD01142             
  S01142FTTT                 0.05     22.87     85.00    0.9760 huff_2yr             SD01143             
  S01143FTTF                 0.03     18.55     85.00    0.9180 huff_2yr             S01044TTTT          
  S01144TFFT                 0.02     13.61     85.00    0.8580 huff_2yr             S01045TTTT          
  S01145TTFT                 0.04     19.06     85.00    0.9040 huff_2yr             S01046TTTT          
  S01146TTFT                 0.05     22.36     85.00    0.8370 huff_2yr             S01047TTTT          
  S01147TTFT                 0.07     26.16     85.00    0.8150 huff_2yr             SD01048             
  S01148TTFT                 0.09     29.30    100.00    0.7480 huff_2yr             SD01048             
  S01149TTTT                 0.09     30.00     85.00    0.7430 huff_2yr             SD01050             
  S01150TTTT                 0.09     30.00     85.00    0.7070 huff_2yr             SD01051             
  S01151TTTT                 0.09     30.00     85.00    0.7520 huff_2yr             SD01051             
  S01152TTTT                 0.09     30.00    100.00    0.7690 huff_2yr             SD01052             
  S01153FTTF                 0.09     29.98    100.00    0.7690 huff_2yr             SD01053             
  S01155FFFT                 0.02     15.05     85.00    0.7700 huff_2yr             SD01055             
  S01156TTFT                 0.09     29.99     85.00    0.7680 huff_2yr             SD01056             
  S01157TTFT                 0.09     29.61     85.00    0.7630 huff_2yr             S01057TTTT          
  S01158TTFF                 0.01      9.87     85.00    0.7230 huff_2yr             SD01058             
  S01159FFTT                 0.03     18.07     85.00    0.7230 huff_2yr             SD01060             
  S01160TTTT                 0.09     30.00     85.00    0.7230 huff_2yr             S01061TTTT          
  S01161TTTT                 0.09     30.00     85.00    0.7230 huff_2yr             S01062TTTT          
  S01162TTTT                 0.09     30.00     85.00    0.7230 huff_2yr             SD01063             
  S01163FFTT                 0.04     20.46     85.00    0.7230 huff_2yr             SD01064             
  S01164TTTT                 0.09     30.00     85.00    0.7230 huff_2yr             SD01065             
  S01165TTTT                 0.09     30.00     85.00    0.7230 huff_2yr             SD01066             
  S01166TTTT                 0.09     30.00     85.00    0.7230 huff_2yr             SD01067             
  S01167TFTT                 0.04     21.00     15.00    0.7230 huff_2yr             S01068TTTT          
  S01168TTTT                 0.03     16.72     15.00    0.7660 huff_2yr             OF8                 
  S01238TTTT                 0.06     23.95     85.00    1.4350 huff_2yr             SD01239             
  S01239TTTF                 0.08     28.95     85.00    1.4350 huff_2yr             SD01240             
  S01240TFTT                 0.04     19.71     85.00    1.4350 huff_2yr             S01241TTTT          
  S01241TTTT                 0.09     30.00     85.00    1.1930 huff_2yr             S01242TTTT          
  S01242TTTT                 0.09     30.00     85.00    0.9010 huff_2yr             SD01243             
  S01243TTTF                 0.08     27.47     85.00    0.8240 huff_2yr             SD01144             
  S01244FFTT                 0.04     20.48     85.00    0.9170 huff_2yr             SD01145             
  S01245FTTT                 0.09     29.87     85.00    0.7430 huff_2yr             SD01146             
  S01246FTTT                 0.08     27.44     85.00    0.8370 huff_2yr             SD01147             
  S01247FTTT                 0.06     23.79     85.00    0.8130 huff_2yr             SD01147             
  S01248FTTT                 0.04     19.73    100.00    0.7630 huff_2yr             S01149TTTT          
  S01249FTTF                 0.03     18.58     85.00    0.7380 huff_2yr             S01150TTTT          
  S01250TFFT                 0.04     19.06     85.00    0.7340 huff_2yr             S01151TTTT          
  S01251TTFT                 0.05     22.83     85.00    0.7650 huff_2yr             S01151TTTT          
  S01252TTFT                 0.07     26.55    100.00    0.7690 huff_2yr             S01152TTTT          
  S01253TTFF                 0.09     29.50    100.00    0.7690 huff_2yr             SD01153             
  S01258FFTT                 0.00      0.94     85.00    0.7230 huff_2yr             SD01159             
  S01259TTTT                 0.07     26.94     85.00    0.7230 huff_2yr             S01160TTTT          
  S01260TTTT                 0.09     30.00     85.00    0.7230 huff_2yr             S01161TTTT          
  S01261TTTT                 0.09     30.00     85.00    0.7230 huff_2yr             S01162TTTT          
  S01262TTTF                 0.09     29.38     85.00    0.7230 huff_2yr             SD01163             
  S01263TFTT                 0.04     20.85     85.00    0.7230 huff_2yr             S01164TTTT          
  S01264TTTT                 0.09     30.00     85.00    0.7230 huff_2yr             S01165TTTT          
  S01265TTTT                 0.09     30.00     85.00    0.7230 huff_2yr             S01166TTTT          
  S01266TTTT                 0.09     30.00     85.00    0.7230 huff_2yr             SD01167             
  S01267TFFT                 0.04     20.51     15.00    0.7660 huff_2yr             S01168TTTT          
  S01268TTTT                 0.07     26.00     15.00    0.7660 huff_2yr             S01168TTTT          
  S01338TTTT                 0.03     17.53      0.00    1.4350 huff_2yr             SD01339             
  S01339TTTF                 0.07     25.79     85.00    1.4350 huff_2yr             SD01340             
  S01340TFTT                 0.06     23.99     85.00    1.3180 huff_2yr             S01341TTTT          
  S01341TTTT                 0.09     30.00     85.00    0.9280 huff_2yr             S01342TTTT          
  S01342TTTT                 0.09     30.00     85.00    0.9800 huff_2yr             SD01243             
  S01343TTTF                 0.06     23.76     85.00    0.9170 huff_2yr             SD01244             
  S01344TFFT                 0.03     16.54     85.00    0.9170 huff_2yr             SD01245             
  S01345TTFT                 0.05     21.74     85.00    0.8240 huff_2yr             SD01246             
  S01346TTFT                 0.07     25.58     85.00    0.8150 huff_2yr             SD01247             
  S01347TTFT                 0.08     29.04     85.00    0.7570 huff_2yr             SD01247             
  S01348TTTT                 0.09     30.00     85.00    0.7520 huff_2yr             SD01249             
  S01349TTTT                 0.09     30.00     85.00    0.7300 huff_2yr             SD01250             
  S01350FTTT                 0.09     29.65     85.00    0.7390 huff_2yr             SD01251             
  S01351FTTF                 0.07     26.58     85.00    0.7630 huff_2yr             SD01251             
  S01352FFTT                 0.02     15.17    100.00    0.7690 huff_2yr             SD01252             
  S01353FTTT                 0.03     18.42    100.00    0.7690 huff_2yr             SD01253             
  S01354FTTF                 0.03     16.56    100.00    0.7680 huff_2yr             SD01254             
  S01358FFFT                 0.02     13.53     85.00    0.7230 huff_2yr             SD01259             
  S01359TTFT                 0.09     29.91     85.00    0.7230 huff_2yr             S01260TTTT          
  S01360TTTT                 0.09     30.00     85.00    0.7230 huff_2yr             S01261TTTT          
  S01361TTTT                 0.09     30.00     85.00    0.7230 huff_2yr             SD01262             
  S01362TTTF                 0.07     26.15     85.00    0.7230 huff_2yr             SD01263             
  S01363TFTT                 0.06     24.35     85.00    0.7230 huff_2yr             S01264TTTT          
  S01364TTTT                 0.09     30.00     85.00    0.7230 huff_2yr             S01265TTTT          
  S01365TTTT                 0.09     30.00     85.00    0.7230 huff_2yr             S01266TTTT          
  S01366TTTT                 0.09     30.00     85.00    0.7660 huff_2yr             SD01267             
  S01367TTTF                 0.04     20.01     85.00    0.7660 huff_2yr             S01268TTTT          
  S01368TTTT                 0.09     29.99     15.00    0.7660 huff_2yr             S01268TTTT          
  S01369TTTT                 0.02     13.17     15.00    0.7660 huff_2yr             S01268TTTT          
  S01438TTTT                 0.01      7.55      0.00    1.4350 huff_2yr             SD01439             
  S01439TTTF                 0.06     24.30      0.00    1.4350 huff_2yr             SD01440             
  S01440TFTT                 0.06     24.67     15.00    1.1110 huff_2yr             S01441TTTT          
  S01441TTTT                 0.09     30.00     15.00    0.8860 huff_2yr             S01442TTTT          
  S01442TTTT                 0.09     30.00     85.00    0.8210 huff_2yr             SD01343             
  S01443TTTF                 0.04     19.37     85.00    0.9170 huff_2yr             SD01344             
  S01444FFTT                 0.07     27.14     85.00    0.7650 huff_2yr             SD01345             
  S01445FTTT                 0.09     29.35     85.00    0.8370 huff_2yr             SD01346             
  S01446FTTT                 0.07     26.17     85.00    0.8150 huff_2yr             SD01346             
  S01447FTTT                 0.05     22.37     85.00    0.7890 huff_2yr             S01348TTTT          
  S01448FTTF                 0.04     21.18     85.00    0.7460 huff_2yr             S01349TTTT          
  S01449TFFT                 0.05     21.29     85.00    0.7100 huff_2yr             SD01350             
  S01450TTFT                 0.05     23.07     85.00    0.7290 huff_2yr             SD01351             
  S01451TTFF                 0.06     24.10     85.00    0.7690 huff_2yr             SD01351             
  S01452TFTT                 0.06     23.91    100.00    0.7690 huff_2yr             SD01352             
  S01453TTTT                 0.09     30.00    100.00    0.7690 huff_2yr             SD01353             
  S01454TTTT                 0.09     30.00    100.00    0.7680 huff_2yr             SD01354             
  S01455FTTT                 0.08     29.11    100.00    0.7680 huff_2yr             SD01355             
  S01456FTTF                 0.05     23.33    100.00    0.7650 huff_2yr             SD01356             
  S01458FFTT                 0.02     13.45     85.00    0.7230 huff_2yr             SD01359             
  S01459FTTF                 0.02     13.00     85.00    0.7230 huff_2yr             S01360TTTT          
  S01460TFFT                 0.03     16.87     85.00    0.7230 huff_2yr             S01361TTTT          
  S01461TTFT                 0.05     22.54     85.00    0.7230 huff_2yr             SD01362             
  S01462TTFF                 0.04     19.63     85.00    0.7230 huff_2yr             SD01363             
  S01463TFFT                 0.08     27.57     85.00    0.7230 huff_2yr             S01364TTTT          
  S01464TTTT                 0.09     30.00     85.00    0.7230 huff_2yr             S01365TTTT          
  S01465TTTT                 0.09     30.00    100.00    0.7530 huff_2yr             S01366TTTT          
  S01466TTTT                 0.09     30.00    100.00    0.7660 huff_2yr             SD01367             
  S01467TTTF                 0.04     19.80    100.00    0.7660 huff_2yr             S01368TTTT          
  S01468TFTT                 0.09     29.80     15.00    0.7660 huff_2yr             S01369TTTT          
  S01469TTTT                 0.05     23.08     15.00    0.7660 huff_2yr             S01569TTTT          
  S01539TTTF                 0.07     26.74      0.00    1.1930 huff_2yr             SD01540             
  S01540TFFT                 0.03     18.61     85.00    0.9700 huff_2yr             S01441TTTT          
  S01541TTTT                 0.09     30.00     15.00    0.9570 huff_2yr             S01442TTTT          
  S01542TTTT                 0.09     30.00     15.00    0.9170 huff_2yr             SD01443             
  S01543TTFF                 0.03     16.25     15.00    0.9170 huff_2yr             SD01444             
  S01544TFTT                 0.09     29.91     15.00    0.7930 huff_2yr             SD01445             
  S01545TTTT                 0.09     30.00     15.00    0.8150 huff_2yr             SD01446             
  S01546TTTT                 0.09     30.00     15.00    0.7680 huff_2yr             SD01446             
  S01547TTTT                 0.09     30.00     85.00    0.7610 huff_2yr             SD01448             
  S01548TTTT                 0.09     30.00     85.00    0.7530 huff_2yr             SD01449             
  S01549TTTT                 0.09     30.00     85.00    0.7210 huff_2yr             SD01450             
  S01550FTTT                 0.08     28.73     85.00    0.7540 huff_2yr             SD01450             
  S01551FTTT                 0.06     25.25     85.00    0.7690 huff_2yr             SD01451             
  S01552TTTT                 0.08     28.61    100.00    0.7690 huff_2yr             SD01452             
  S01553TTTT                 0.09     30.00    100.00    0.7690 huff_2yr             S01453TTTT          
  S01554TTTT                 0.09     30.00    100.00    0.7680 huff_2yr             S01454TTTT          
  S01555TTTT                 0.09     30.00    100.00    0.7700 huff_2yr             SD01455             
  S01556TTTF                 0.06     24.07     15.00    0.7600 huff_2yr             SD01456             
  S01557FFTT                 0.00      1.33     85.00    0.7230 huff_2yr             SD01458             
  S01558TTTT                 0.08     28.26     85.00    0.7230 huff_2yr             SD01459             
  S01559TTTT                 0.09     30.00     85.00    0.7230 huff_2yr             SD01460             
  S01560FTTT                 0.08     28.53     85.00    0.7230 huff_2yr             SD01461             
  S01561FTTT                 0.06     25.03     85.00    0.7230 huff_2yr             SD01462             
  S01562FTFF                 0.02     12.70     85.00    0.7230 huff_2yr             SD01463             
  S01563FFTF                 0.03     18.35     85.00    0.7230 huff_2yr             S01464TTTT          
  S01564TFFT                 0.03     18.08     85.00    0.7500 huff_2yr             S01465TTTT          
  S01565TTFT                 0.04     20.34    100.00    0.7660 huff_2yr             S01466TTTT          
  S01566TTFT                 0.06     24.51    100.00    0.7660 huff_2yr             SD01467             
  S01567TTFF                 0.04     19.53    100.00    0.7660 huff_2yr             SD01468             
  S01568TFTT                 0.08     28.20     15.00    0.7660 huff_2yr             S01469TTTT          
  S01569TTTT                 0.08     28.47     15.00    0.7660 huff_2yr             OF9                 
  S01570TTTT                 0.00      2.38     15.00    0.7660 huff_2yr             OF9                 
  S01639TTTT                 0.06     24.30      0.00    1.0130 huff_2yr             SD01540             
  S01640FTTF                 0.05     23.28     85.00    0.9800 huff_2yr             S01541TTTT          
  S01641TFFT                 0.05     21.59     85.00    0.9170 huff_2yr             S01542TTTT          
  S01642TTFF                 0.08     27.93     85.00    0.9170 huff_2yr             SD01543             
  S01643FFFT                 0.03     17.81    100.00    0.7870 huff_2yr             SD01544             
  S01644TTTT                 0.09     30.00    100.00    0.8150 huff_2yr             S01545TTTT          
  S01645TTTT                 0.09     30.00     85.00    0.8150 huff_2yr             S01545TTTT          
  S01646TTTT                 0.09     30.00     85.00    0.7950 huff_2yr             S01547TTTT          
  S01647TTTT                 0.09     30.00     15.00    0.7550 huff_2yr             S01548TTTT          
  S01648TTTT                 0.09     30.00     15.00    0.7380 huff_2yr             S01549TTTT          
  S01649TTTT                 0.09     30.00     15.00    0.7440 huff_2yr             SD01550             
  S01650TTTT                 0.09     30.00     15.00    0.7580 huff_2yr             SD01550             
  S01651TTTT                 0.09     30.00     85.00    0.7690 huff_2yr             SD01551             
  S01652TTTT                 0.09     30.00    100.00    0.7690 huff_2yr             SD01552             
  S01653TTTT                 0.09     30.00    100.00    0.7690 huff_2yr             S01553TTTT          
  S01654TTTT                 0.09     30.00    100.00    0.7680 huff_2yr             S01554TTTT          
  S01655TTTT                 0.09     30.00     15.00    0.7700 huff_2yr             S01555TTTT          
  S01656TTTF                 0.04     20.07     15.00    0.7650 huff_2yr             SD01556             
  S01657FFTT                 0.02     12.68     85.00    0.7230 huff_2yr             SD01558             
  S01658TTTT                 0.09     30.00     85.00    0.7230 huff_2yr             S01559TTTT          
  S01659TTTT                 0.09     30.00     85.00    0.7230 huff_2yr             SD01560             
  S01660TTTT                 0.09     30.00     85.00    0.7230 huff_2yr             SD01561             
  S01661TTTF                 0.09     30.00     85.00    0.7230 huff_2yr             SD01562             
  S01662FFTT                 0.03     17.24     85.00    0.7230 huff_2yr             SD01563             
  S01663TTTT                 0.09     30.00     85.00    0.7430 huff_2yr             SD01564             
  S01664TTTT                 0.09     30.00     85.00    0.7660 huff_2yr             SD01565             
  S01665FTTT                 0.08     28.49     85.00    0.7660 huff_2yr             SD01566             
  S01666FTTT                 0.06     24.95     85.00    0.7660 huff_2yr             SD01567             
  S01667FTTF                 0.02     15.50     85.00    0.7660 huff_2yr             SD01568             
  S01668TFTT                 0.08     27.44     85.00    0.7660 huff_2yr             S01569TTTT          
  S01669TTTT                 0.09     30.00     85.00    0.7660 huff_2yr             S01570TTTT          
  S01670TTTT                 0.02     12.44      0.00    0.7740 huff_2yr             OF9                 
  S01739TTTT                 0.03     18.09      0.00    0.9530 huff_2yr             SD01640             
  S01740TTTT                 0.09     30.00     85.00    0.8940 huff_2yr             SD01641             
  S01741FTTT                 0.07     25.89     85.00    0.9170 huff_2yr             SD01642             
  S01742FTTF                 0.03     17.44     85.00    0.9170 huff_2yr             SD01643             
  S01743FFTF                 0.02     13.15     85.00    0.7710 huff_2yr             S01644TTTT          
  S01744TFFT                 0.03     17.85    100.00    0.8150 huff_2yr             S01645TTTT          
  S01745TTFT                 0.04     20.99     85.00    0.7790 huff_2yr             S01646TTTT          
  S01746TTFT                 0.06     25.04     85.00    0.7690 huff_2yr             S01647TTTT          
  S01747TTFT                 0.08     28.50    100.00    0.7470 huff_2yr             S01648TTTT          
  S01748TTTT                 0.09     30.00     85.00    0.7150 huff_2yr             S01649TTTT          
  S01749TTTT                 0.09     30.00     85.00    0.7290 huff_2yr             S01650TTTT          
  S01750TTTT                 0.09     30.00     85.00    0.7620 huff_2yr             S01650TTTT          
  S01751TTTT                 0.09     30.00     15.00    0.7690 huff_2yr             S01651TTTT          
  S01752TTTT                 0.09     30.00     15.00    0.7690 huff_2yr             S01652TTTT          
  S01753TTTT                 0.09     30.00     15.00    0.7690 huff_2yr             S01653TTTT          
  S01754TTTT                 0.09     30.00     15.00    0.7680 huff_2yr             S01654TTTT          
  S01755TTTT                 0.09     30.00     15.00    0.7700 huff_2yr             S01655TTTT          
  S01756TTTF                 0.02     15.05     15.00    0.7580 huff_2yr             SD01656             
  S01757TFTT                 0.04     20.71     15.00    0.7230 huff_2yr             S01658TTTT          
  S01758TTTT                 0.09     30.00     85.00    0.7230 huff_2yr             S01659TTTT          
  S01759TTTT                 0.09     30.00     85.00    0.7230 huff_2yr             S01660TTTT          
  S01760TTTT                 0.09     30.00     85.00    0.7230 huff_2yr             SD01661             
  S01761TTTF                 0.08     28.33     85.00    0.7230 huff_2yr             SD01662             
  S01762TFFT                 0.04     19.93     85.00    0.7230 huff_2yr             S01663TTTT          
  S01763TTTT                 0.09     30.00     85.00    0.7660 huff_2yr             S01664TTTT          
  S01764TTTT                 0.09     30.00     85.00    0.7660 huff_2yr             SD01665             
  S01765TTTT                 0.09     30.00     85.00    0.7660 huff_2yr             SD01666             
  S01766TTTT                 0.09     30.00     85.00    0.7660 huff_2yr             SD01667             
  S01767TTTF                 0.05     21.42     85.00    0.7660 huff_2yr             SD01668             
  S01768TFTT                 0.07     27.15     85.00    0.7660 huff_2yr             S01669TTTT          
  S01769TTTT                 0.09     30.00     85.00    0.8590 huff_2yr             S01670TTTT          
  S01770TTTT                 0.03     17.40      0.00    0.8750 huff_2yr             S01670TTTT          
  S01839TTTT                 0.01      8.53      0.00    0.9800 huff_2yr             S01740TTTT          
  S01840TTTT                 0.09     29.86     85.00    0.9170 huff_2yr             SD01741             
  S01841TTTT                 0.09     30.00     85.00    0.9170 huff_2yr             SD01742             
  S01842TTTF                 0.06     23.92     85.00    0.8090 huff_2yr             SD01743             
  S01843TFTT                 0.07     25.54     85.00    0.8150 huff_2yr             SD01744             
  S01844FTTT                 0.09     30.00     85.00    0.8150 huff_2yr             SD01745             
  S01845FTTT                 0.08     28.23     85.00    0.7970 huff_2yr             SD01746             
  S01846FTTT                 0.06     24.60     85.00    0.7750 huff_2yr             SD01747             
  S01847FTTT                 0.04     20.32     85.00    0.7500 huff_2yr             S01748TTTT          
  S01848FTTF                 0.03     17.84     85.00    0.7210 huff_2yr             S01749TTTT          
  S01849TFFT                 0.03     17.98     85.00    0.7290 huff_2yr             S01750TTTT          
  S01850TTFT                 0.05     21.63     85.00    0.7690 huff_2yr             S01750TTTT          
  S01851TTTT                 0.07     27.27     15.00    0.7690 huff_2yr             S01751TTTT          
  S01852TTTT                 0.09     30.00     15.00    0.7690 huff_2yr             S01752TTTT          
  S01853TTTT                 0.09     30.00     15.00    0.7690 huff_2yr             S01753TTTT          
  S01854TTTT                 0.09     30.00     15.00    0.7680 huff_2yr             S01754TTTT          
  S01855TTTF                 0.09     29.93     15.00    0.7640 huff_2yr             S01755TTTT          
  S01856TTFF                 0.01      7.36     15.00    0.7580 huff_2yr             SD01756             
  S01857TFTT                 0.07     26.51     15.00    0.7230 huff_2yr             S01758TTTT          
  S01858TTTT                 0.09     30.00     15.00    0.7230 huff_2yr             S01759TTTT          
  S01859TTTT                 0.09     30.00     15.00    0.7230 huff_2yr             S01760TTTT          
  S01860TTTT                 0.09     30.00     15.00    0.7230 huff_2yr             SD01761             
  S01861TTTF                 0.08     27.52     15.00    0.7230 huff_2yr             SD01762             
  S01862FTTF                 0.02     15.57     85.00    0.7660 huff_2yr             S01763TTTT          
  S01863TFFT                 0.03     15.97     85.00    0.7660 huff_2yr             S01764TTTT          
  S01864TTFT                 0.04     20.36     85.00    0.7660 huff_2yr             S01765TTTT          
  S01865TTFT                 0.06     24.56     85.00    0.7660 huff_2yr             S01766TTTT          
  S01866TTFT                 0.08     28.14     85.00    0.7660 huff_2yr             SD01767             
  S01867TTFF                 0.05     21.71     85.00    0.8010 huff_2yr             SD01768             
  S01868TFTT                 0.07     26.86     85.00    0.8750 huff_2yr             S01769TTTT          
  S01869TTTT                 0.09     30.00     85.00    0.9110 huff_2yr             S01770TTTT          
  S01870TTTT                 0.04     21.17      0.00    0.9530 huff_2yr             S01770TTTT          
  S01940TTTT                 0.07     26.48     85.00    0.9170 huff_2yr             S01841TTTT          
  S01941TTTT                 0.09     30.00     85.00    0.9170 huff_2yr             SD01842             
  S01942TTTF                 0.04     18.99     85.00    0.8140 huff_2yr             SD01843             
  S01943TFTT                 0.08     28.88     85.00    0.8150 huff_2yr             SD01844             
  S01944TTTT                 0.09     30.00     85.00    0.7900 huff_2yr             SD01845             
  S01945TTTT                 0.09     30.00     85.00    0.7760 huff_2yr             SD01846             
  S01946TTTT                 0.09     30.00     85.00    0.7580 huff_2yr             SD01847             
  S01947TTTT                 0.09     30.00     85.00    0.7380 huff_2yr             SD01848             
  S01948TTTT                 0.09     30.00     85.00    0.7370 huff_2yr             SD01849             
  S01949FTTT                 0.09     29.80     85.00    0.7520 huff_2yr             SD01849             
  S01950FTTF                 0.05     22.09     85.00    0.7690 huff_2yr             SD01850             
  S01951TFTT                 0.06     23.58     85.00    0.7690 huff_2yr             SD01851             
  S01952TTTT                 0.09     30.00     85.00    0.7690 huff_2yr             S01852TTTT          
  S01953TTTT                 0.09     30.00     15.00    0.7690 huff_2yr             S01853TTTT          
  S01954TTTT                 0.09     30.00     15.00    0.7680 huff_2yr             S01854TTTT          
  S01955TTTF                 0.08     27.81     15.00    0.7680 huff_2yr             SD01855             
  S01956FFTT                 0.00      4.04     15.00    0.7620 huff_2yr             SD01856             
  S01957TTTT                 0.09     29.80     15.00    0.7230 huff_2yr             S01858TTTT          
  S01958TTTT                 0.09     30.00     15.00    0.7230 huff_2yr             S01859TTTT          
  S01959TTTT                 0.09     30.00     15.00    0.7230 huff_2yr             S01860TTTT          
  S01960TTTT                 0.09     30.00     15.00    0.7230 huff_2yr             SD01861             
  S01961TTTT                 0.09     30.00     15.00    0.7660 huff_2yr             SD01862             
  S01962TTTT                 0.09     30.00     85.00    0.7660 huff_2yr             SD01863             
  S01963FTTT                 0.09     29.70     85.00    0.7660 huff_2yr             SD01864             
  S01964FTTT                 0.07     26.96     85.00    0.7660 huff_2yr             SD01865             
  S01965FTTT                 0.05     23.30     85.00    0.7660 huff_2yr             SD01866             
  S01966FTTT                 0.04     18.93     85.00    0.8750 huff_2yr             SD01867             
  S01967FTTF                 0.01     12.00     85.00    0.8980 huff_2yr             SD01968             
  S01968TFTT                 0.07     26.56     85.00    0.9530 huff_2yr             S01969TTTT          
  S01969TTTT                 0.09     30.00     85.00    0.9530 huff_2yr             S01970TTTT          
  S01970TTTT                 0.05     22.82      0.00    0.9530 huff_2yr             OF10                
  S02040TTTT                 0.04     20.93      0.00    0.8620 huff_2yr             S01941TTTT          
  S02041TTTT                 0.09     30.00     85.00    0.8310 huff_2yr             SD01942             
  S02042TTFF                 0.03     16.28     85.00    0.8150 huff_2yr             SD01943             
  S02043TFTT                 0.09     30.00     85.00    0.8150 huff_2yr             S01944TTTT          
  S02044TTTT                 0.09     30.00     85.00    0.7980 huff_2yr             S01945TTTT          
  S02045TTTT                 0.09     30.00     85.00    0.7700 huff_2yr             S01946TTTT          
  S02046TTTT                 0.09     30.00     85.00    0.7580 huff_2yr             S01947TTTT          
  S02047TTTT                 0.09     30.00     85.00    0.7200 huff_2yr             S01948TTTT          
  S02048TTTT                 0.09     30.00     85.00    0.7290 huff_2yr             SD01949             
  S02049TTTT                 0.09     30.00     85.00    0.7470 huff_2yr             SD01949             
  S02050TTTF                 0.04     19.93     85.00    0.7690 huff_2yr             SD01950             
  S02051TFTT                 0.08     27.49     85.00    0.7690 huff_2yr             SD01951             
  S02052TTTT                 0.09     30.00     85.00    0.7690 huff_2yr             S01952TTTT          
  S02053TTTT                 0.09     30.00     85.00    0.7690 huff_2yr             S01953TTTT          
  S02054TTTT                 0.09     30.00     15.00    0.7680 huff_2yr             S01954TTTT          
  S02055TTTF                 0.06     24.43     15.00    0.7680 huff_2yr             SD01955             
  S02056TFTT                 0.01     10.75     15.00    0.7230 huff_2yr             SD01956             
  S02057TTTT                 0.09     30.00     15.00    0.7230 huff_2yr             SD01957             
  S02058TTTT                 0.09     30.00     85.00    0.7230 huff_2yr             S01959TTTT          
  S02059TTTT                 0.09     30.00     85.00    0.7230 huff_2yr             S01960TTTT          
  S02060TTTT                 0.09     30.00     85.00    0.7660 huff_2yr             S01961TTTT          
  S02061TTTT                 0.09     30.00     15.00    0.7660 huff_2yr             S01962TTTT          
  S02062TTTT                 0.09     30.00     15.00    0.7660 huff_2yr             SD01963             
  S02063TTTT                 0.09     30.00     15.00    0.7660 huff_2yr             SD01964             
  S02064TTTT                 0.09     30.00     15.00    0.8280 huff_2yr             SD01965             
  S02065TTTT                 0.09     30.00     85.00    0.8860 huff_2yr             SD01966             
  S02066TTTT                 0.09     30.00     85.00    0.9530 huff_2yr             SD01967             
  S02067TTTF                 0.05     22.41     85.00    0.9530 huff_2yr             SD02068             
  S02068TFTT                 0.07     26.26     85.00    0.9530 huff_2yr             S02069TTTT          
  S02069TTTT                 0.09     30.00     85.00    0.9710 huff_2yr             S02070TTTT          
  S02070TTTT                 0.05     22.40      0.00    0.9680 huff_2yr             OF10                
  S02140TFFT                 0.01     10.79      0.00    2.8230 huff_2yr             S02041TTTT          
  S02141TTFF                 0.05     22.64     85.00    0.8930 huff_2yr             SD02042             
  S02142FFFT                 0.02     15.55     85.00    0.8150 huff_2yr             S02043TFTT          
  S02143TTFT                 0.09     29.33     85.00    0.8020 huff_2yr             S02044TTTT          
  S02144TTTT                 0.09     30.00     85.00    0.7910 huff_2yr             S02045TTTT          
  S02145TTTT                 0.09     30.00     85.00    0.7660 huff_2yr             S02046TTTT          
  S02146TTTT                 0.09     30.00    100.00    0.7480 huff_2yr             S02047TTTT          
  S02147TTTT                 0.09     30.00     85.00    0.7200 huff_2yr             S02048TTTT          
  S02148TTTT                 0.09     30.00     85.00    0.7290 huff_2yr             S02049TTTT          
  S02149TTTT                 0.09     30.00     85.00    0.7690 huff_2yr             S02049TTTT          
  S02150TTFF                 0.03     16.27     85.00    0.7690 huff_2yr             SD02050             
  S02151TFTT                 0.09     29.92     85.00    0.7690 huff_2yr             SD02051             
  S02152TTTT                 0.09     30.00     85.00    0.7690 huff_2yr             S02052TTTT          
  S02153TTTT                 0.09     30.00     85.00    0.7690 huff_2yr             S02053TTTT          
  S02154TTTT                 0.09     30.00     85.00    0.7660 huff_2yr             S02054TTTT          
  S02155TTTF                 0.04     20.51     15.00    0.7670 huff_2yr             SD02055             
  S02156TFTT                 0.02     14.71     85.00    0.7230 huff_2yr             S02057TTTT          
  S02157TTTT                 0.09     30.00     85.00    0.7230 huff_2yr             S02058TTTT          
  S02158TTTT                 0.09     30.00     85.00    0.7230 huff_2yr             S02059TTTT          
  S02159TTTT                 0.09     30.00     85.00    0.7640 huff_2yr             S02060TTTT          
  S02160TTTT                 0.09     30.00     85.00    0.7660 huff_2yr             S02061TTTT          
  S02161TTFT                 0.09     29.97     85.00    0.7660 huff_2yr             S02062TTTT          
  S02162TTTT                 0.09     30.00     85.00    0.7710 huff_2yr             S02063TTTT          
  S02163TTTT                 0.09     30.00     85.00    0.8740 huff_2yr             S02064TTTT          
  S02164TTTT                 0.09     30.00    100.00    0.9530 huff_2yr             S02065TTTT          
  S02165TTTT                 0.09     30.00     15.00    0.9530 huff_2yr             S02166TTTT          
  S02166TTTT                 0.09     30.00     15.00    0.9500 huff_2yr             SD02167             
  S02167TTTF                 0.05     22.27     15.00    0.9720 huff_2yr             SD02168             
  S02168TFTT                 0.07     26.64     15.00    0.9580 huff_2yr             S02169TTTT          
  S02169TTTT                 0.09     30.00     15.00    0.9720 huff_2yr             S02170TTTT          
  S02170TTTT                 0.05     21.96     15.00    0.9630 huff_2yr             OF10                
  S02241FFTT                 0.05     21.98      0.00    2.9420 huff_2yr             SD02141             
  S02242FTTT                 0.04     19.13     85.00    1.3730 huff_2yr             SD02142             
  S02243FTTF                 0.02     13.58     85.00    0.7980 huff_2yr             S02144TTTT          
  S02244TFFT                 0.02     12.95     85.00    0.7770 huff_2yr             S02145TTTT          
  S02245TTFT                 0.03     18.24     85.00    0.7610 huff_2yr             S02146TTTT          
  S02246TTFT                 0.05     22.66    100.00    0.7380 huff_2yr             S02147TTTT          
  S02247TTFT                 0.07     26.35     85.00    0.7300 huff_2yr             S02148TTTT          
  S02248TTFT                 0.09     29.38     85.00    0.7290 huff_2yr             S02148TTTT          
  S02249TTTF                 0.09     29.69     85.00    0.7690 huff_2yr             S02149TTTT          
  S02250FFTT                 0.03     16.89     85.00    0.7690 huff_2yr             SD02150             
  S02251TTTT                 0.09     30.00     85.00    0.7690 huff_2yr             SD02151             
  S02252TTTT                 0.09     30.00     85.00    0.7690 huff_2yr             S02152TTTT          
  S02253TTTT                 0.09     30.00     85.00    0.7690 huff_2yr             S02153TTTT          
  S02254TTTT                 0.09     30.00     85.00    0.7680 huff_2yr             S02154TTTT          
  S02255TTTF                 0.03     16.66     15.00    0.7590 huff_2yr             SD02155             
  S02256TFTT                 0.03     16.11     85.00    0.7230 huff_2yr             S02157TTTT          
  S02257TTTT                 0.09     30.00     85.00    0.7230 huff_2yr             S02158TTTT          
  S02258TTTT                 0.09     30.00     85.00    0.7440 huff_2yr             S02159TTTT          
  S02259TTTT                 0.09     30.00     85.00    0.7660 huff_2yr             S02160TTTT          
  S02260TTTF                 0.08     28.43     85.00    0.7660 huff_2yr             SD02161             
  S02261TTFT                 0.01     12.17     85.00    0.8560 huff_2yr             S02162TTTT          
  S02262TTFT                 0.03     16.87     85.00    0.9390 huff_2yr             S02163TTTT          
  S02263TTFT                 0.05     21.29    100.00    0.9530 huff_2yr             SD02264             
  S02264TTFT                 0.07     25.60    100.00    0.9480 huff_2yr             SD02265             
  S02265TTFT                 0.08     29.14     85.00    0.9500 huff_2yr             S02266TTTT          
  S02266TTTT                 0.09     30.00     85.00    0.9720 huff_2yr             SD02267             
  S02267TTTF                 0.05     22.66     85.00    0.9480 huff_2yr             SD02268             
  S02268TFTT                 0.08     27.50     85.00    0.9670 huff_2yr             S02269TTTT          
  S02269TTTT                 0.09     30.00     85.00    0.9670 huff_2yr             S02270TTTT          
  S02270TTTT                 0.05     21.51     15.00    0.9590 huff_2yr             OF11                
  S02341TTTT                 0.05     23.42     85.00    3.0030 huff_2yr             SD02241             
  S02342TTTT                 0.09     30.00     85.00    2.5700 huff_2yr             SD02242             
  S02343TTTT                 0.09     30.00     85.00    1.8140 huff_2yr             SD02243             
  S02344FTTT                 0.09     29.43     85.00    0.7750 huff_2yr             SD02245             
  S02345FTTT                 0.07     26.28     85.00    0.7560 huff_2yr             SD02246             
  S02346FTTT                 0.05     22.33     85.00    0.7260 huff_2yr             SD02247             
  S02347FTTT                 0.03     17.52     85.00    0.7290 huff_2yr             SD02248             
  S02348FTTF                 0.01     11.28     85.00    0.7360 huff_2yr             SD02248             
  S02349TFFF                 0.01     11.36     85.00    0.7690 huff_2yr             SD02249             
  S02350TFFT                 0.02     12.64     85.00    0.7690 huff_2yr             SD02250             
  S02351TTFT                 0.05     22.32     85.00    0.7690 huff_2yr             S02251TTTT          
  S02352TTFT                 0.07     26.08     85.00    0.7690 huff_2yr             S02252TTTT          
  S02353TTFT                 0.09     29.23     85.00    0.7690 huff_2yr             S02253TTTT          
  S02354TTTT                 0.09     30.00     85.00    0.7660 huff_2yr             S02254TTTT          
  S02355TTFF                 0.02     13.04     15.00    0.7490 huff_2yr             SD02255             
  S02356TFTT                 0.03     17.14     85.00    0.7230 huff_2yr             S02257TTTT          
  S02357TTTT                 0.09     30.00     85.00    0.7320 huff_2yr             S02258TTTT          
  S02358TTTT                 0.09     30.00     85.00    0.7660 huff_2yr             S02259TTTT          
  S02359TTTT                 0.09     30.00     85.00    0.7980 huff_2yr             SD02260             
  S02360TTTF                 0.06     24.16     85.00    0.9260 huff_2yr             SD02261             
  S02361FFTT                 0.06     24.14     85.00    0.9440 huff_2yr             SD02362             
  S02362FTTT                 0.09     29.64     85.00    0.9240 huff_2yr             SD02363             
  S02363FTTT                 0.07     26.69     85.00    0.9720 huff_2yr             SD02364             
  S02364FTTT                 0.05     22.78     85.00    0.9330 huff_2yr             SD02365             
  S02365FTTF                 0.03     18.27     85.00    0.9670 huff_2yr             SD02366             
  S02366TFFT                 0.03     17.02     85.00    0.9460 huff_2yr             SD02367             
  S02367TTFF                 0.02     13.52     85.00    0.9620 huff_2yr             SD02368             
  S02368TFTT                 0.08     27.89     85.00    0.9620 huff_2yr             S02369TTTT          
  S02369TTTT                 0.09     30.00     85.00    0.9530 huff_2yr             S02370TTTT          
  S02370TTTT                 0.04     21.06      0.00    0.9570 huff_2yr             OF11                
  S02441TTTT                 0.03     17.76     85.00    3.0660 huff_2yr             S02342TTTT          
  S02442TTTT                 0.08     28.57     85.00    3.1420 huff_2yr             S02343TTTT          
  S02443TTTT                 0.09     30.00     85.00    3.0460 huff_2yr             SD02344             
  S02444TTTT                 0.09     30.00     85.00    2.7710 huff_2yr             SD02344             
  S02445TTTT                 0.09     30.00     85.00    1.5720 huff_2yr             SD02346             
  S02446TTTT                 0.09     30.00     85.00    0.7190 huff_2yr             SD02347             
  S02447TTTT                 0.09     30.00     85.00    0.7290 huff_2yr             SD02348             
  S02448TTTT                 0.09     30.00     85.00    0.7560 huff_2yr             SD02348             
  S02449FTTT                 0.08     28.68     85.00    0.7690 huff_2yr             SD02349             
  S02450FTTT                 0.06     25.13     85.00    0.7690 huff_2yr             SD02350             
  S02451FTTT                 0.04     20.97     85.00    0.7690 huff_2yr             SD02351             
  S02452FTTT                 0.02     15.75     85.00    0.7690 huff_2yr             SD02352             
  S02453FTFF                 0.00      6.17     85.00    0.7690 huff_2yr             SD02353             
  S02454TFFT                 0.01     11.17     15.00    0.7670 huff_2yr             S02354TTTT          
  S02455TTFF                 0.00      4.53     15.00    0.7430 huff_2yr             SD02355             
  S02456TFFT                 0.02     12.46     85.00    0.7230 huff_2yr             S02357TTTT          
  S02457TTFT                 0.06     24.35     85.00    0.7660 huff_2yr             S02358TTTT          
  S02458TTFT                 0.08     28.60     85.00    0.9140 huff_2yr             S02359TTTT          
  S02459TTTT                 0.09     30.00     85.00    0.9290 huff_2yr             SD02360             
  S02460TTTF                 0.04     18.94     85.00    0.9280 huff_2yr             SD02461             
  S02461TFTT                 0.08     27.62     85.00    0.9180 huff_2yr             S02462TTTT          
  S02462TTTT                 0.09     30.00     85.00    0.9660 huff_2yr             S02463TTTT          
  S02463TTTT                 0.09     30.00     85.00    0.9300 huff_2yr             S02464TTTT          
  S02464TTTT                 0.09     30.00     85.00    0.9490 huff_2yr             S02465TTTT          
  S02465TTTT                 0.09     30.00     85.00    0.9560 huff_2yr             S02466TTTT          
  S02466TTTT                 0.09     30.00     85.00    0.9360 huff_2yr             SD02467             
  S02467FTTF                 0.04     19.28     85.00    0.9520 huff_2yr             SD02468             
  S02468TFTT                 0.08     28.27     85.00    0.9520 huff_2yr             S02469TTTT          
  S02469TTTT                 0.09     30.00     85.00    0.9520 huff_2yr             S02470TTTT          
  S02470TTTT                 0.04     20.14      0.00    0.9520 huff_2yr             OF11                
  S02542TTTT                 0.00      1.23     85.00    3.1420 huff_2yr             S02443TTTT          
  S02543TTTT                 0.01     11.54     85.00    3.0180 huff_2yr             S02444TTTT          
  S02544TTTT                 0.03     18.68     85.00    2.9830 huff_2yr             S02445TTTT          
  S02545TTTT                 0.06     23.76     85.00    3.0530 huff_2yr             S02445TTTT          
  S02546TTTT                 0.08     27.78     85.00    3.2290 huff_2yr             S02446TTTT          
  S02547TTTT                 0.08     28.71     85.00    2.2660 huff_2yr             S02447TTTT          
  S02548TTTT                 0.08     28.60     85.00    0.6090 huff_2yr             S02448TTTT          
  S02549TTTT                 0.08     28.50     85.00    0.7240 huff_2yr             SD02449             
  S02550TTTT                 0.09     29.43     85.00    0.7690 huff_2yr             SD02450             
  S02551TTTT                 0.09     30.00     85.00    0.7690 huff_2yr             SD02451             
  S02552TTTF                 0.09     29.89     85.00    0.7690 huff_2yr             SD02452             
  S02553FFTT                 0.04     19.93     85.00    0.7690 huff_2yr             SD02453             
  S02554FTTT                 0.07     26.17     85.00    0.7690 huff_2yr             SD02454             
  S02555FTTF                 0.01     12.15     15.00    0.7230 huff_2yr             SD02455             
  S02556FFTT                 0.01     11.27     85.00    0.8520 huff_2yr             SD02557             
  S02557FTTT                 0.02     12.62     60.00    0.8750 huff_2yr             SD02558             
  S02558FTTF                 0.00      3.90     85.00    0.9020 huff_2yr             SD02559             
  S02559TFFT                 0.01     12.15     85.00    0.9160 huff_2yr             SD02560             
  S02560TTFF                 0.01      8.42     85.00    0.9370 huff_2yr             SD02561             
  S02561TFFT                 0.05     22.96     85.00    0.9260 huff_2yr             SD02562             
  S02562TTFT                 0.07     26.58     85.00    0.9480 huff_2yr             SD02563             
  S02563TTFT                 0.09     29.45     85.00    0.9520 huff_2yr             S02564TTTT          
  S02564TTTT                 0.09     30.00     85.00    0.9520 huff_2yr             S02565TTTT          
  S02565TTTT                 0.09     30.00     85.00    0.9480 huff_2yr             S02566TTTT          
  S02566TTTT                 0.09     30.00     85.00    0.9570 huff_2yr             SD02567             
  S02567TTTF                 0.02     15.26     85.00    0.9600 huff_2yr             SD02568             
  S02568TFTT                 0.08     28.64     85.00    0.9620 huff_2yr             S02569TTTT          
  S02569TTTT                 0.09     30.00     85.00    0.9640 huff_2yr             S02570TTTT          
  S02570TTTT                 0.03     18.25      0.00    0.9660 huff_2yr             S02670TTTT          
  S02650TTTT                 0.01      9.07     85.00    0.3000 huff_2yr             S02550TTTT          
  S02651TTTT                 0.07     27.31     85.00    0.3000 huff_2yr             S02551TTTT          
  S02652TTTF                 0.07     26.76     85.00    0.3000 huff_2yr             SD02552             
  S02653TFTT                 0.06     24.36     85.00    0.4150 huff_2yr             SD02553             
  S02654TTTT                 0.09     30.00     85.00    0.5290 huff_2yr             SD02554             
  S02655TTTF                 0.02     15.29     15.00    0.8320 huff_2yr             SD02555             
  S02656TFTT                 0.05     21.37     85.00    0.9030 huff_2yr             S02657TTTT          
  S02657TTTT                 0.09     30.00     85.00    0.9290 huff_2yr             SD02658             
  S02658FTTT                 0.09     29.40     60.00    0.9460 huff_2yr             SD02659             
  S02659FTTT                 0.07     26.35     60.00    0.9540 huff_2yr             SD02660             
  S02660FTTT                 0.05     22.63     60.00    0.9640 huff_2yr             SD02661             
  S02661FTTT                 0.03     18.16     85.00    0.9650 huff_2yr             SD02662             
  S02662FTTT                 0.01     12.13     85.00    0.9630 huff_2yr             SD02663             
  S02663FTTF                 0.00      4.63     85.00    0.9690 huff_2yr             SD02664             
  S02664TFFT                 0.02     12.39     85.00    0.9690 huff_2yr             SD02665             
  S02665TTFT                 0.03     18.08     85.00    0.9630 huff_2yr             SD02666             
  S02666TTFT                 0.05     22.37     85.00    0.9730 huff_2yr             SD02667             
  S02667TTFF                 0.01      8.48     85.00    0.9730 huff_2yr             SD02668             
  S02668TFTT                 0.08     28.31     85.00    0.9730 huff_2yr             S02669TTTT          
  S02669TTTT                 0.09     30.00     85.00    0.9730 huff_2yr             S02670TTTT          
  S02670TTTT                 0.03     16.13      0.00    0.9730 huff_2yr             OF12                
  S02751TTTT                 0.01     10.04     85.00    0.3000 huff_2yr             SD02652             
  S02752TTFF                 0.04     20.73     85.00    0.3000 huff_2yr             SD02653             
  S02753TFTT                 0.08     28.79     85.00    0.3000 huff_2yr             SD02653             
  S02754TTTT                 0.09     30.00     85.00    0.3000 huff_2yr             S02654TTTT          
  S02755TTTF                 0.02     14.90     15.00    0.7010 huff_2yr             SD02655             
  S02756TFTT                 0.05     23.40     85.00    0.9770 huff_2yr             S02757TTTT          
  S02757TTTT                 0.09     30.00     85.00    0.9770 huff_2yr             S02758TTTT          
  S02758TTTT                 0.09     30.00     85.00    0.9770 huff_2yr             S02759TTTT          
  S02759TTTT                 0.09     30.00     85.00    0.9770 huff_2yr             S02760TTTT          
  S02760TTTT                 0.09     30.00     60.00    0.9750 huff_2yr             S02761TTTT          
  S02761TTTT                 0.09     30.00     60.00    0.9750 huff_2yr             S02762TTTT          
  S02762TTTT                 0.09     30.00     85.00    0.9750 huff_2yr             SD02763             
  S02763FTTT                 0.09     29.26     85.00    0.9750 huff_2yr             SD02764             
  S02764FTTT                 0.07     26.13     85.00    0.9750 huff_2yr             SD02765             
  S02765FTTT                 0.05     22.36     85.00    0.9750 huff_2yr             SD02766             
  S02766FTTT                 0.03     17.35     85.00    0.9760 huff_2yr             SD02767             
  S02768TFFT                 0.00      3.63     85.00    0.9760 huff_2yr             SD02769             
  S02769TTFT                 0.02     13.70     85.00    0.9750 huff_2yr             SD02770             
  S02770TTFF                 0.01      8.69      0.00    0.9740 huff_2yr             OF12                
  S02852FFTT                 0.02     13.66     85.00    0.3000 huff_2yr             SD02752             
  S02853TTTT                 0.09     30.00     85.00    0.3000 huff_2yr             SD02753             
  S02854TTTT                 0.09     30.00     85.00    0.6850 huff_2yr             S02754TTTT          
  S02855TTTF                 0.02     14.50     15.00    2.6630 huff_2yr             SD02756             
  S02856TFTT                 0.06     24.57     85.00    0.9950 huff_2yr             S02857TTTT          
  S02857TTTT                 0.09     30.00     85.00    0.9890 huff_2yr             S02858TTTT          
  S02858TTTT                 0.09     30.00     85.00    0.9820 huff_2yr             S02859TTTT          
  S02859TTTT                 0.09     30.00     85.00    0.9800 huff_2yr             S02860TTTT          
  S02860TTTT                 0.09     30.00     85.00    0.9790 huff_2yr             S02861TTTT          
  S02861TTTT                 0.09     30.00     60.00    0.9790 huff_2yr             S02862TTTT          
  S02862TTTT                 0.09     30.00     60.00    0.9790 huff_2yr             S02863TTTT          
  S02863TTTT                 0.09     30.00     85.00    0.9790 huff_2yr             S02864TTTT          
  S02864TTTT                 0.09     30.00     85.00    0.9790 huff_2yr             S02865TTTT          
  S02865TTTT                 0.09     30.00     85.00    0.9790 huff_2yr             SD02866             
  S02866TTTF                 0.08     28.15     85.00    0.9790 huff_2yr             SD02867             
  S02867FFTT                 0.01      7.66     85.00    0.9790 huff_2yr             SD02868             
  S02868FTTT                 0.08     28.83     85.00    0.9790 huff_2yr             SD02869             
  S02869FTTT                 0.07     26.55     85.00    0.9790 huff_2yr             SD02870             
  S02870FTTF                 0.01      8.61      0.00    0.9790 huff_2yr             J168                
  S02952TTTT                 0.01     11.66     15.00    8.3280 huff_2yr             SD02852             
  S02953TTTT                 0.09     30.00     15.00    4.7010 huff_2yr             S02853TTTT          
  S02954TTTT                 0.09     30.00     15.00    5.4240 huff_2yr             S02854TTTT          
  S02955TTTF                 0.02     14.09     15.00    2.8860 huff_2yr             S02954TTTT          
  S02956TFTT                 0.06     25.37     85.00    0.9950 huff_2yr             S02957TTTT          
  S02957TTTT                 0.09     30.00     85.00    0.9950 huff_2yr             SD02958             
  S02958TTTT                 0.07     27.08     85.00    0.9950 huff_2yr             SD02959             
  S02959TTTT                 0.05     23.19     85.00    0.9950 huff_2yr             SD02960             
  S02960TTTT                 0.08     27.43     85.00    0.9950 huff_2yr             SD02961             
  S02961TTTT                 0.09     29.96     85.00    0.9950 huff_2yr             S02962TTTT          
  S02962TTTT                 0.09     30.00     60.00    0.9870 huff_2yr             S02963TTTT          
  S02963TTTT                 0.09     30.00     85.00    0.9820 huff_2yr             S02964TTTT          
  S02964TTTT                 0.09     30.00     85.00    0.9820 huff_2yr             S02965TTTT          
  S02965TTTT                 0.09     30.00     85.00    0.9820 huff_2yr             SD02966             
  S02966TTTF                 0.07     26.92     85.00    0.9820 huff_2yr             SD02967             
  S02967TFTT                 0.02     14.87     85.00    0.9810 huff_2yr             S02968TTTT          
  S02968TTTT                 0.09     30.00     85.00    0.9800 huff_2yr             S02969TTTT          
  S02969TTTT                 0.09     30.00     85.00    0.9800 huff_2yr             S02970TTTT          
  S02970TTTT                 0.00      6.38      0.00    0.9800 huff_2yr             J168                
  S03052TTTT                 0.00      1.53     15.00    6.9700 huff_2yr             S02952TTTT          
  S03053TTTT                 0.08     28.72     15.00    5.4240 huff_2yr             S02953TTTT          
  S03054TTTT                 0.09     30.00     15.00    6.5710 huff_2yr             S02954TTTT          
  S03055TTTF                 0.02     13.66     15.00    3.0250 huff_2yr             SD02955             
[...]
  C115                    1.00   0.00  0.00  0.00  1.00  0.00  0.00  0.00  0.67  0.00
  C116                    1.00   0.00  0.00  0.00  1.00  0.00  0.00  0.00  0.00  0.00
  C117                    1.00   0.00  0.00  0.00  1.00  0.00  0.00  0.00  0.04  0.00
  C118                    1.00   0.00  0.00  0.00  1.00  0.00  0.00  0.00  0.00  0.00
  C119                    1.00   0.00  0.00  0.00  1.00  0.00  0.00  0.00  0.46  0.00
  C12                     1.00   0.00  0.00  0.00  1.00  0.00  0.00  0.00  0.18  0.00
  C120                    1.00   0.00  0.00  0.00  1.00  0.00  0.00  0.00  0.01  0.00
  C121                    1.00   0.00  0.00  0.00  0.99  0.01  0.00  0.00  0.29  0.00
  C122                    1.00   0.00  0.00  0.00  1.00  0.00  0.00  0.00  0.03  0.00
  C123                    1.00   0.00  0.00  0.00  1.00  0.00  0.00  0.00  0.44  0.00
  C124                    1.00   0.00  0.00  0.00  1.00  0.00  0.00  0.00  1.00  0.00
  C125                    1.00   0.00  0.00  0.00  1.00  0.00  0.00  0.00  0.89  0.00
  C126                    1.00   0.00  0.00  0.00  1.00  0.00  0.00  0.00  0.48  0.00
  C127                    1.00   0.00  0.00  0.00  1.00  0.00  0.00  0.00  0.62  0.00
  C128                    1.00   0.00  0.00  0.00  0.95  0.05  0.00  0.00  0.00  0.00
  C129                    1.00   0.00  0.00  0.00  0.98  0.02  0.00  0.00  0.35  0.00
  C13                     1.00   0.00  0.00  0.00  1.00  0.00  0.00  0.00  0.92  0.00
  C130                    1.00   0.00  0.00  0.00  1.00  0.00  0.00  0.00  0.76  0.00
  C131                    1.00   0.00  0.00  0.00  1.00  0.00  0.00  0.00  0.52  0.00
  C132                    1.00   0.00  0.00  0.00  1.00  0.00  0.00  0.00  0.08  0.00
  C133                    1.00   0.00  0.00  0.00  1.00  0.00  0.00  0.00  0.71  0.00
  C134                    1.00   0.00  0.00  0.00  1.00  0.00  0.00  0.00  0.70  0.00
  C135                    1.00   0.00  0.00  0.00  1.00  0.00  0.00  0.00  0.51  0.00
  C136                    1.00   0.00  0.00  0.00  0.99  0.01  0.00  0.00  0.51  0.00
  C137                    1.00   0.00  0.00  0.00  1.00  0.00  0.00  0.00  0.75  0.00
  C138                    1.00   0.00  0.00  0.00  1.00  0.00  0.00  0.00  0.69  0.00
  C139                    1.00   0.00  0.00  0.00  0.98  0.02  0.00  0.00  0.45  0.00
  C14                     1.00   0.00  0.00  0.00  1.00  0.00  0.00  0.00  0.74  0.00
  C141                    1.00   0.00  0.00  0.00  1.00  0.00  0.00  0.00  0.47  0.00
  C142                    1.00   0.00  0.00  0.00  1.00  0.00  0.00  0.00  0.23  0.00
  C143                    1.00   0.00  0.00  0.00  1.00  0.00  0.00  0.00  0.64  0.00
  C144                    1.00   0.00  0.00  0.00  0.96  0.04  0.00  0.00  0.45  0.00
  C145                    1.00   0.00  0.00  0.00  0.96  0.04  0.00  0.00  0.28  0.00
  C146                    1.00   0.00  0.00  0.00  1.00  0.00  0.00  0.00  0.43  0.00
  C147                    1.00   0.00  0.00  0.00  0.90  0.10  0.00  0.00  0.57  0.00
  C148                    1.00   0.00  0.00  0.00  1.00  0.00  0.00  0.00  0.05  0.00
  C149                    1.00   0.00  0.00  0.00  1.00  0.00  0.00  0.00  0.00  0.00
  C15                     1.00   0.00  0.00  0.00  1.00  0.00  0.00  0.00  0.60  0.00
  C150                    1.00   0.00  0.00  0.00  1.00  0.00  0.00  0.00  0.00  0.00
  C151                    1.00   0.00  0.00  0.00  1.00  0.00  0.00  0.00  0.06  0.00
  C152                    1.00   0.00  0.00  0.00  1.00  0.00  0.00  0.00  0.02  0.00
  C153                    1.00   0.00  0.00  0.00  1.00  0.00  0.00  0.00  0.04  0.00
  C154                    1.00   0.00  0.00  0.00  1.00  0.00  0.00  0.00  0.00  0.00
  C155                    1.00   0.00  0.00  0.00  1.00  0.00  0.00  0.00  0.36  0.00
  C156                    1.00   0.00  0.00  0.00  1.00  0.00  0.00  0.00  0.00  0.00
  C157                    1.00   0.00  0.00  0.00  1.00  0.00  0.00  0.00  0.94  0.00
  C158                    1.00   0.00  0.00  0.00  1.00  0.00  0.00  0.00  0.83  0.00
  C159                    1.00   0.00  0.00  0.00  1.00  0.00  0.00  0.00  0.53  0.00
  C16                     1.00   0.00  0.00  0.00  1.00  0.00  0.00  0.00  0.58  0.00
  C160                    1.00   0.00  0.00  0.00  1.00  0.00  0.00  0.00  0.94  0.00
  C161                    1.00   0.00  0.00  0.00  1.00  0.00  0.00  0.00  0.75  0.00
  C162                    1.00   0.00  0.00  0.00  0.95  0.05  0.00  0.00  0.55  0.00
  C163                    1.00   0.00  0.00  0.00  1.00  0.00  0.00  0.00  0.87  0.00
  C164                    1.00   0.00  0.00  0.00  0.99  0.01  0.00  0.00  0.02  0.00
  C165                    1.00   0.00  0.00  0.00  1.00  0.00  0.00  0.00  0.28  0.00
  C166                    1.00   0.00  0.00  0.00  0.92  0.08  0.00  0.00  0.34  0.00
  C167                    1.00   0.00  0.00  0.00  0.99  0.01  0.00  0.00  0.10  0.00
  C168                    1.00   0.00  0.00  0.00  1.00  0.00  0.00  0.00  0.07  0.00
  C169                    1.00   0.00  0.00  0.00  1.00  0.00  0.00  0.00  0.53  0.00
  C17                     1.00   0.00  0.00  0.00  1.00  0.00  0.00  0.00  0.30  0.00
  C170                    1.00   0.00  0.00  0.00  1.00  0.00  0.00  0.00  0.38  0.00
  C171                    1.00   0.00  0.00  0.00  1.00  0.00  0.00  0.00  0.35  0.00
  C172                    1.00   0.00  0.00  0.00  1.00  0.00  0.00  0.00  0.33  0.00
  C173                    1.00   0.00  0.00  0.00  1.00  0.00  0.00  0.00  0.11  0.00
  C174                    1.00   0.00  0.00  0.00  1.00  0.00  0.00  0.00  0.40  0.00
  C175                    1.00   0.00  0.00  0.00  0.98  0.02  0.00  0.00  0.97  0.00
  C176                    1.00   0.00  0.00  0.00  1.00  0.00  0.00  0.00  0.54  0.00
  C177                    1.00   0.00  0.00  0.00  1.00  0.00  0.00  0.00  0.82  0.00
  C178                    1.00   0.00  0.00  0.00  1.00  0.00  0.00  0.00  0.79  0.00
  C179                    1.00   0.00  0.00  0.00  1.00  0.00  0.00  0.00  0.47  0.00
  C18                     1.00   0.00  0.00  0.00  1.00  0.00  0.00  0.00  0.95  0.00
  C180                    1.00   0.00  0.00  0.00  1.00  0.00  0.00  0.00  0.71  0.00
  C181                    1.00   0.00  0.00  0.00  1.00  0.00  0.00  0.00  0.50  0.00
  C182                    1.00   0.00  0.00  0.00  1.00  0.00  0.00  0.00  0.48  0.00
  C183                    1.00   0.00  0.00  0.00  1.00  0.00  0.00  0.00  0.21  0.00
  C184                    1.00   0.00  0.00  0.00  1.00  0.00  0.00  0.00  0.00  0.00
  C185                    1.00   0.00  0.00  0.00  1.00  0.00  0.00  0.00  0.00  0.00
  C186                    1.00   0.00  0.00  0.00  0.36  0.64  0.00  0.00  0.00  0.00
  C187                    1.00   0.00  0.00  0.00  1.00  0.00  0.00  0.00  0.18  0.00
  C188                    1.00   0.00  0.00  0.00  0.94  0.06  0.00  0.00  0.80  0.00
  C189                    1.00   0.00  0.00  0.00  1.00  0.00  0.00  0.00  0.46  0.00
  C19                     1.00   0.00  0.00  0.00  1.00  0.00  0.00  0.00  0.68  0.00
  C190                    1.00   0.00  0.00  0.00  1.00  0.00  0.00  0.00  0.46  0.00
  C191                    1.00   0.00  0.00  0.00  1.00  0.00  0.00  0.00  0.65  0.00
  C192                    1.00   0.00  0.00  0.00  1.00  0.00  0.00  0.00  0.03  0.00
  C193                    1.00   0.00  0.00  0.00  1.00  0.00  0.00  0.00  0.62  0.00
  C194                    1.00   0.00  0.00  0.00  1.00  0.00  0.00  0.00  0.00  0.00
  C195                    1.00   0.00  0.00  0.00  1.00  0.00  0.00  0.00  0.00  0.00
  C196                    1.00   0.00  0.00  0.00  1.00  0.00  0.00  0.00  0.00  0.00
  C197                    1.00   0.00  0.00  0.00  1.00  0.00  0.00  0.00  0.09  0.00
  C198                    1.00   0.00  0.00  0.00  1.00  0.00  0.00  0.00  0.97  0.00
  C199                    1.00   0.00  0.00  0.00  1.00  0.00  0.00  0.00  0.81  0.00
  C2                      1.00   0.00  0.00  0.00  1.00  0.00  0.00  0.00  0.36  0.00
  C20                     1.00   0.00  0.00  0.00  1.00  0.00  0.00  0.00  0.00  0.00
  C200                    1.00   0.00  0.00  0.00  1.00  0.00  0.00  0.00  1.00  0.00
  C201                    1.00   0.00  0.00  0.00  1.00  0.00  0.00  0.00  0.56  0.00
  C202                    1.00   0.00  0.00  0.00  1.00  0.00  0.00  0.00  0.14  0.00
  C203                    1.00   0.00  0.00  0.00  0.99  0.01  0.00  0.00  0.17  0.00
  C204                    1.00   0.00  0.00  0.00  1.00  0.00  0.00  0.00  0.06  0.00
  C205                    1.00   0.00  0.00  0.00  1.00  0.00  0.00  0.00  0.72  0.00
  C206                    1.00   0.00  0.00  0.00  1.00  0.00  0.00  0.00  0.53  0.00
  C207                    1.00   0.00  0.00  0.00  1.00  0.00  0.00  0.00  0.44  0.00
  C208                    1.00   0.00  0.00  0.00  1.00  0.00  0.00  0.00  0.09  0.00
  C209                    1.00   0.00  0.00  0.00  1.00  0.00  0.00  0.00  0.02  0.00
  C21                     1.00   0.00  0.00  0.00  1.00  0.00  0.00  0.00  0.74  0.00
  C210                    1.00   0.00  0.00  0.00  1.00  0.00  0.00  0.00  0.23  0.00
  C211                    1.00   0.00  0.00  0.00  1.00  0.00  0.00  0.00  0.00  0.00
  C213                    1.00   0.00  0.00  0.00  1.00  0.00  0.00  0.00  1.00  0.00
  C214                    1.00   0.00  0.00  0.00  1.00  0.00  0.00  0.00  0.78  0.00
  C215                    1.00   0.00  0.00  0.00  1.00  0.00  0.00  0.00  1.00  0.00
  C22                     1.00   0.00  0.00  0.00  1.00  0.00  0.00  0.00  0.76  0.00
  C23                     1.00   0.00  0.00  0.00  1.00  0.00  0.00  0.00  0.46  0.00
  C24                     1.00   0.00  0.00  0.00  1.00  0.00  0.00  0.00  0.21  0.00
  C25                     1.00   0.00  0.00  0.00  1.00  0.00  0.00  0.00  0.40  0.00
  C26                     1.00   0.00  0.00  0.00  1.00  0.00  0.00  0.00  0.52  0.00
  C27                     1.00   0.00  0.00  0.00  1.00  0.00  0.00  0.00  0.03  0.00
  C28                     1.00   0.00  0.00  0.00  1.00  0.00  0.00  0.00  0.45  0.00
  C29                     1.00   0.00  0.00  0.00  1.00  0.00  0.00  0.00  0.30  0.00
  C3                      1.00   0.00  0.00  0.00  1.00  0.00  0.00  0.00  0.36  0.00
  C30                     1.00   0.00  0.00  0.00  1.00  0.00  0.00  0.00  0.00  0.00
  C31                     1.00   0.00  0.00  0.00  0.99  0.01  0.00  0.00  0.09  0.00
  C32                     1.00   0.00  0.00  0.00  0.97  0.03  0.00  0.00  0.27  0.00
  C33                     1.00   0.00  0.00  0.00  1.00  0.00  0.00  0.00  0.42  0.00
  C34                     1.00   0.00  0.00  0.00  1.00  0.00  0.00  0.00  0.36  0.00
  C35                     1.00   0.00  0.00  0.00  1.00  0.00  0.00  0.00  0.00  0.00
  C36                     1.00   0.00  0.00  0.00  0.99  0.01  0.00  0.00  0.46  0.00
  C37                     1.00   0.00  0.00  0.00  1.00  0.00  0.00  0.00  0.11  0.00
  C38                     1.00   0.00  0.00  0.00  1.00  0.00  0.00  0.00  0.39  0.00
  C39                     1.00   0.00  0.00  0.00  1.00  0.00  0.00  0.00  0.00  0.00
  C4                      1.00   0.00  0.00  0.00  1.00  0.00  0.00  0.00  0.14  0.00
  C40                     1.00   0.00  0.00  0.00  1.00  0.00  0.00  0.00  0.15  0.00
  C41                     1.00   0.00  0.00  0.00  1.00  0.00  0.00  0.00  0.25  0.00
  C42                     1.00   0.00  0.00  0.00  1.00  0.00  0.00  0.00  0.00  0.00
  C43                     1.00   0.00  0.00  0.00  1.00  0.00  0.00  0.00  0.11  0.00
  C44                     1.00   0.00  0.00  0.00  1.00  0.00  0.00  0.00  0.00  0.00
  C45                     1.00   0.00  0.00  0.00  1.00  0.00  0.00  0.00  0.12  0.00
  C46                     1.00   0.00  0.00  0.00  1.00  0.00  0.00  0.00  0.75  0.00
  C47                     1.00   0.00  0.00  0.00  0.97  0.03  0.00  0.00  0.05  0.00
  C48                     1.00   0.00  0.00  0.00  1.00  0.00  0.00  0.00  0.40  0.00
  C49                     1.00   0.00  0.00  0.00  0.94  0.06  0.00  0.00  0.47  0.00
  C5                      1.00   0.00  0.00  0.00  1.00  0.00  0.00  0.00  0.78  0.00
  C50                     1.00   0.00  0.00  0.00  1.00  0.00  0.00  0.00  0.12  0.00
  C51                     1.00   0.00  0.00  0.00  1.00  0.00  0.00  0.00  0.28  0.00
  C52                     1.00   0.00  0.00  0.00  1.00  0.00  0.00  0.00  0.22  0.00
  C53                     1.00   0.00  0.00  0.00  1.00  0.00  0.00  0.00  0.57  0.00
  C54                     1.00   0.00  0.00  0.00  1.00  0.00  0.00  0.00  1.00  0.00
  C55                     1.00   0.00  0.00  0.00  0.97  0.03  0.00  0.00  0.00  0.00
  C56                     1.00   0.00  0.00  0.00  1.00  0.00  0.00  0.00  0.03  0.00
  C57                     1.00   0.00  0.00  0.00  1.00  0.00  0.00  0.00  0.00  0.00
  C58                     1.00   0.00  0.00  0.00  1.00  0.00  0.00  0.00  0.61  0.00
  C59                     1.00   0.00  0.00  0.00  0.97  0.03  0.00  0.00  0.41  0.00
  C6                      1.00   0.00  0.00  0.00  1.00  0.00  0.00  0.00  0.00  0.00
  C60                     1.00   0.00  0.00  0.00  1.00  0.00  0.00  0.00  0.32  0.00
  C61                     1.00   0.00  0.00  0.00  1.00  0.00  0.00  0.00  0.53  0.00
  C62                     1.00   0.00  0.00  0.00  1.00  0.00  0.00  0.00  0.63  0.00
  C63                     1.00   0.00  0.00  0.00  1.00  0.00  0.00  0.00  0.33  0.00
  C64                     1.00   0.00  0.00  0.00  1.00  0.00  0.00  0.00  0.75  0.00
  C65                     1.00   0.00  0.00  0.00  0.97  0.03  0.00  0.00  0.60  0.00
  C66                     1.00   0.00  0.00  0.00  1.00  0.00  0.00  0.00  0.30  0.00
  C67                     1.00   0.00  0.00  0.00  1.00  0.00  0.00  0.00  0.70  0.00
  C68                     1.00   0.00  0.00  0.00  0.94  0.06  0.00  0.00  0.21  0.00
  C69                     1.00   0.00  0.00  0.00  1.00  0.00  0.00  0.00  0.06  0.00
  C7                      1.00   0.00  0.00  0.00  1.00  0.00  0.00  0.00  0.94  0.00
  C70                     1.00   0.00  0.00  0.00  1.00  0.00  0.00  0.00  0.74  0.00
  C71                     1.00   0.00  0.00  0.00  1.00  0.00  0.00  0.00  0.44  0.00
  C72                     1.00   0.00  0.00  0.00  1.00  0.00  0.00  0.00  0.06  0.00
  C73                     1.00   0.00  0.00  0.00  1.00  0.00  0.00  0.00  0.00  0.00
  C74                     1.00   0.00  0.00  0.00  1.00  0.00  0.00  0.00  0.02  0.00
  C75                     1.00   0.00  0.00  0.00  1.00  0.00  0.00  0.00  0.38  0.00
  C76                     1.00   0.00  0.00  0.00  1.00  0.00  0.00  0.00  0.55  0.00
  C77                     1.00   0.00  0.00  0.00  1.00  0.00  0.00  0.00  0.26  0.00
  C78                     1.00   0.00  0.00  0.00  1.00  0.00  0.00  0.00  0.00  0.00
  C79                     1.00   0.00  0.00  0.00  1.00  0.00  0.00  0.00  0.15  0.00
  C8                      1.00   0.00  0.00  0.00  1.00  0.00  0.00  0.00  0.44  0.00
  C80                     1.00   0.00  0.00  0.00  1.00  0.00  0.00  0.00  0.05  0.00
  C81                     1.00   0.00  0.00  0.00  1.00  0.00  0.00  0.00  0.05  0.00
  C82                     1.00   0.00  0.00  0.00  0.08  0.92  0.00  0.00  0.00  0.00
  C83                     1.00   0.00  0.00  0.00  1.00  0.00  0.00  0.00  0.00  0.00
  C84                     1.00   0.00  0.00  0.00  1.00  0.00  0.00  0.00  0.18  0.00
  C85                     1.00   0.00  0.00  0.00  0.96  0.04  0.00  0.00  0.05  0.00
  C86                     1.00   0.00  0.00  0.00  1.00  0.00  0.00  0.00  0.17  0.00
  C87                     1.00   0.00  0.00  0.00  1.00  0.00  0.00  0.00  0.03  0.00
  C88                     1.00   0.00  0.00  0.00  1.00  0.00  0.00  0.00  0.60  0.00
  C89                     1.00   0.00  0.00  0.00  1.00  0.00  0.00  0.00  0.44  0.00
  C9                      1.00   0.00  0.00  0.00  1.00  0.00  0.00  0.00  0.84  0.00
  C90                     1.00   0.00  0.00  0.00  0.97  0.03  0.00  0.00  0.21  0.00
  C91                     1.00   0.00  0.00  0.00  1.00  0.00  0.00  0.00  0.53  0.00
  C92                     1.00   0.00  0.00  0.00  1.00  0.00  0.00  0.00  0.61  0.00
  C92880                  1.00   0.00  0.00  0.00  1.00  0.00  0.00  0.00  0.40  0.00
  C93                     1.00   0.00  0.00  0.00  1.00  0.00  0.00  0.00  0.20  0.00
  C94                     1.00   0.00  0.00  0.00  1.00  0.00  0.00  0.00  0.00  0.00
  C95                     1.00   0.00  0.00  0.00  0.97  0.03  0.00  0.00  0.01  0.00
  C96                     1.00   0.00  0.00  0.00  1.00  0.00  0.00  0.00  0.42  0.00
  C97                     1.00   0.00  0.00  0.00  0.91  0.09  0.00  0.00  0.04  0.00
  C98                     1.00   0.00  0.00  0.00  0.98  0.02  0.00  0.00  0.33  0.00
  C99                     1.00   0.00  0.00  0.00  1.00  0.00  0.00  0.00  0.25  0.00
  
  
  *************************
  Conduit Surcharge Summary
  *************************
  
  ----------------------------------------------------------------------------
                                                           Hours        Hours 
                         --------- Hours Full --------   Above Full   Capacity
  Conduit                Both Ends  Upstream  Dnstream   Normal Flow   Limited
  ----------------------------------------------------------------------------
  C139                        0.01      0.01      0.59      0.01         0.01
  C144                        0.01      0.01      0.06      0.01         0.01
  C162                        0.01      0.01      0.01      0.20         0.01
  C172                        0.01      0.01      0.19      0.01         0.01
  C173                        0.01      0.01      0.19      0.01         0.01
  C179                        0.01      0.01      0.53      0.01         0.01
  C181                        0.01      0.01      0.40      0.01         0.01
  C182                        0.01      0.01      0.40      0.01         0.01
  C189                        0.01      0.01      0.06      0.01         0.01
  C193                        0.01      0.01      0.32      0.01         0.01
  C194                        0.55      0.55      0.66      0.01         0.01
  C195                        0.57      0.57      0.65      0.01         0.01
  C196                        0.40      0.40      0.64      0.01         0.01
  C199                        0.01      0.01      0.66      0.01         0.01
  C200                        0.01      0.01      0.16      0.01         0.01
  C211                        0.01      0.30      0.01      1.35         0.01
  C213                        0.01      0.01      0.84      0.01         0.01
  C32                         0.49      0.49      1.64      0.01         0.01
  C39                         0.01      0.01      0.01      0.13         0.01
  C55                         0.01      0.01      0.48      0.01         0.01
  C67                         0.01      0.01      0.68      0.01         0.01
  C74                         1.34      1.34      1.63      0.01         0.01
  C75                         0.88      0.88      1.36      0.01         0.01
  C76                         0.01      0.01      0.65      0.01         0.01
  C77                         0.01      0.01      0.51      0.01         0.01
  C78                         0.50      0.51      0.56      0.34         0.08
  C82                         0.01      0.72      0.01      1.97         0.01
  C83                         1.45      1.45      1.55      0.23         0.05
  C85                         0.01      0.01      0.33      0.01         0.01
  C90                         0.13      0.13      1.64      0.01         0.01
  C91                         0.01      0.01      0.46      0.01         0.01
  C97                         0.01      0.01      0.40      0.01         0.01
  

  Analysis begun on:  Wed Oct 27 15:24:45 2021
  Analysis ended on:  Wed Oct 27 15:24:52 2021
  Total elapsed time: 00:00:07